[Format]      =  1
[Precision]   =  1e-008
[Frequency]   =  0
[MinAngle]    =  10
[DoSmartMesh] =  1
[Depth]       =  1
[LengthUnits] =  millimeters
[ProblemType] =  axisymmetric
[Coordinates] =  cartesian
[Comment]     =  "Add comments here."
[PointProps]   = 0
[BdryProps]   = 0
[BlockProps]  = 0
[ConductorProps]  = 0
[NumPoints] = 638
0.26458700000000002	607.12300000000005	0	16	0
0.26458700000000002	0.26500000000000001	0	16	0
292.036	607.12300000000005	0	17	0
292.036	0.264681	0	17	0
38.507399999999997	168.202	0	20	0
39.483899999999998	178.24600000000001	0	20	0
39.483899999999998	188.261	0	21	0
33.834499999999998	217.196	0	22	0
28.630500000000001	228.11500000000001	0	23	0
27.866499999999998	246.44900000000001	0	24	0
10.074999999999999	256.464	0	25	0
10.074999999999999	246.16399999999999	0	25	0
117.85899999999999	151.52699999999999	0	26	0
94.886600000000001	158.99100000000001	0	26	0
48.233400000000003	167.06800000000001	0	27	0
40.799700000000001	168.173	0	28	0
100.854	146.56999999999999	0	29	0
111.077	143.197	0	29	0
95.658699999999996	141.83000000000001	0	30	0
94.578800000000001	120.94499999999999	0	30	0
86.683999999999997	120.946	0	31	0
85.357200000000006	146.559	0	31	0
81.184799999999996	151.24199999999999	0	32	0
69.848600000000005	152.57499999999999	0	32	0
64.664100000000005	147.846	0	33	0
63.944299999999998	133.96799999999999	0	33	0
56.0383	133.96899999999999	0	34	0
55.183599999999998	150.547	0	34	0
50.505099999999999	155.28700000000001	0	35	0
33.174700000000001	156.19900000000001	0	35	0
93.7196	119.015	0	36	0
92.657799999999995	117.803	0	37	0
91.476399999999998	117.227	0	38	0
90.258499999999998	117.20399999999999	0	39	0
89.087299999999999	117.648	0	40	0
88.045699999999997	118.476	0	41	0
87.216899999999995	119.60299999999999	0	42	0
99.263000000000005	146.49199999999999	0	44	0
98.032399999999996	146.01400000000001	0	45	0
97.116500000000002	145.26300000000001	0	46	0
96.469700000000003	144.364	0	47	0
96.046099999999996	143.44499999999999	0	48	0
95.800200000000004	142.63200000000001	0	49	0
85.053899999999999	147.97900000000001	0	51	0
84.523099999999999	149.08199999999999	0	52	0
83.847300000000004	149.90600000000001	0	53	0
83.109099999999998	150.49199999999999	0	54	0
81.775999999999996	151.107	0	55	0
37.504600000000003	168.22999999999999	0	57	0
31.1081	168.22999999999999	0	58	0
118.791	151.054	0	59	0
121.01900000000001	149.65700000000001	0	60	0
122.352	148.62100000000001	0	61	0
123.688	147.36600000000001	0	62	0
124.92100000000001	145.89599999999999	0	63	0
125.944	144.21299999999999	0	64	0
126.69499999999999	142.47800000000001	0	65	0
127.20999999999999	140.869	0	66	0
127.699	138.15899999999999	0	67	0
127.747	136.34200000000001	0	68	0
127.688	135.678	0	69	0
112.90600000000001	142.25200000000001	0	70	0
114.161	141.37200000000001	0	71	0
114.952	140.50999999999999	0	72	0
115.39100000000001	139.614	0	73	0
115.58799999999999	138.63399999999999	0	74	0
115.65600000000001	137.51900000000001	0	75	0
115.845	134.68100000000001	0	76	0
127.459	134.81800000000001	0	77	0
126.625	132.92599999999999	0	78	0
125.913	131.916	0	79	0
124.967	131.035	0	80	0
123.761	130.411	0	81	0
122.267	130.17500000000001	0	82	0
120.73	130.36799999999999	0	83	0
119.411	130.87899999999999	0	84	0
118.30500000000001	131.601	0	85	0
117.40900000000001	132.428	0	86	0
116.23099999999999	133.977	0	87	0
63.879300000000001	133.35400000000001	0	89	0
63.440899999999999	132.01300000000001	0	90	0
62.967799999999997	131.30600000000001	0	91	0
62.264600000000002	130.70099999999999	0	92	0
61.285800000000002	130.29300000000001	0	93	0
59.985700000000001	130.17500000000001	0	94	0
58.557699999999997	130.38800000000001	0	95	0
57.5199	130.84200000000001	0	96	0
56.810600000000001	131.452	0	97	0
56.368400000000001	132.13800000000001	0	98	0
56.038800000000002	133.40100000000001	0	99	0
69.365399999999994	152.57599999999999	0	101	0
68.198099999999997	152.43000000000001	0	102	0
66.770200000000003	151.91399999999999	0	103	0
66.090800000000002	151.44800000000001	0	104	0
65.504999999999995	150.804	0	105	0
64.990200000000002	149.798	0	106	0
64.743799999999993	148.84100000000001	0	107	0
54.808500000000002	151.887	0	109	0
54.310000000000002	153.01300000000001	0	110	0
53.592199999999998	153.97300000000001	0	111	0
52.705800000000004	154.548	0	112	0
51.689599999999999	154.959	0	113	0
0.26458700000000002	114.229	0	115	0
9.7724700000000002	114.758	0	115	0
12.7395	115.191	0	116	0
14.450200000000001	115.71599999999999	0	117	0
15.234500000000001	116.158	0	118	0
15.422700000000001	116.34399999999999	0	119	0
16.0291	117.652	0	120	0
16.272500000000001	119.136	0	121	0
16.0824	120.29000000000001	0	122	0
15.524699999999999	121.17100000000001	0	123	0
14.727600000000001	121.89100000000001	0	124	0
13.818899999999999	122.562	0	125	0
12.187200000000001	123.68300000000001	0	126	0
10.527699999999999	124.649	0	127	0
9.6433900000000001	125.224	0	128	0
8.9324200000000005	125.901	0	129	0
8.4588800000000006	126.69799999999999	0	130	0
8.2868300000000001	127.634	0	131	0
0.26460699999999998	231.31800000000001	0	132	0
12.2905	231.31800000000001	0	132	0
23.825600000000001	255.92099999999999	0	133	0
25.524100000000001	254.006	0	133	0
26.523199999999999	252.46799999999999	0	134	0
27.049299999999999	251.22200000000001	0	135	0
27.328900000000001	250.185	0	136	0
27.7136	247.83699999999999	0	137	0
10.297599999999999	257.37400000000002	0	139	0
10.727399999999999	258.209	0	140	0
11.504099999999999	259.02800000000002	0	141	0
12.0413	259.29599999999999	0	142	0
12.8005	259.45400000000001	0	143	0
15.0121	259.46100000000001	0	144	0
16.6907	259.27999999999997	0	145	0
18.879300000000001	258.77800000000002	0	146	0
21.337599999999998	257.733	0	147	0
22.5929	256.93599999999998	0	148	0
10.193199999999999	245.255	0	150	0
10.622299999999999	244.40700000000001	0	151	0
11.548299999999999	243.55500000000001	0	152	0
14.5847	241.268	0	153	0
16.3841	239.77199999999999	0	154	0
16.881900000000002	238.816	0	155	0
17.1845	237.72900000000001	0	156	0
17.238800000000001	236.33099999999999	0	157	0
17.042200000000001	235.03399999999999	0	158	0
16.7151	234.08799999999999	0	159	0
16.229800000000001	233.322	0	160	0
15.558400000000001	232.566	0	161	0
14.542899999999999	231.845	0	162	0
13.4756	231.47399999999999	0	163	0
0.26458700000000002	227.35400000000001	0	165	0
21.113900000000001	227.35400000000001	0	165	0
22.755500000000001	226.90700000000001	0	166	0
24.291599999999999	226.167	0	167	0
25.8461	224.91900000000001	0	168	0
27.550799999999999	222.89599999999999	0	169	0
29.4175	220.108	0	170	0
30.247699999999998	218.51599999999999	0	171	0
30.921900000000001	216.84200000000001	0	172	0
31.374500000000001	215.12100000000001	0	173	0
31.539899999999999	213.38900000000001	0	174	0
31.724699999999999	208.28999999999999	0	175	0
32.210599999999999	201.29300000000001	0	176	0
32.895000000000003	194.50200000000001	0	177	0
33.279499999999999	191.84	0	178	0
33.675199999999997	190.018	0	179	0
34.246899999999997	187.50700000000001	0	180	0
34.469900000000003	185.20099999999999	0	181	0
34.442300000000003	181.00999999999999	0	182	0
34.557499999999997	176.54400000000001	0	183	0
34.607999999999997	174.08199999999999	0	184	0
34.5321	171.57300000000001	0	185	0
34.306100000000001	168.22999999999999	0	186	0
30.4712	169.096	0	187	0
29.932700000000001	170.21000000000001	0	188	0
29.119299999999999	173.01300000000001	0	189	0
28.604800000000001	176.30500000000001	0	190	0
28.325700000000001	179.75	0	191	0
28.220800000000001	185.75800000000001	0	192	0
28.298400000000001	188.357	0	193	0
28.298400000000001	214.53899999999999	0	194	0
27.904199999999999	215.988	0	195	0
26.683299999999999	219.227	0	196	0
25.744900000000001	220.99799999999999	0	197	0
24.578299999999999	222.59200000000001	0	198	0
23.176300000000001	223.80199999999999	0	199	0
22.384699999999999	224.197	0	200	0
21.531600000000001	224.41900000000001	0	201	0
16.219200000000001	224.745	0	202	0
9.1297599999999992	224.80600000000001	0	203	0
0.26461000000000001	224.68799999999999	0	204	0
30.705400000000001	156.61600000000001	0	205	0
28.174299999999999	157.25200000000001	0	206	0
25.2728	158.27600000000001	0	207	0
22.371400000000001	159.762	0	208	0
21.0364	160.703	0	209	0
19.840299999999999	161.78800000000001	0	210	0
18.8294	163.02799999999999	0	211	0
18.0501	164.43000000000001	0	212	0
17.548500000000001	166.006	0	213	0
17.370999999999999	167.76400000000001	0	214	0
17.370999999999999	205.89699999999999	0	215	0
17.2455	207.22900000000001	0	216	0
16.649100000000001	210.23400000000001	0	217	0
16.071000000000002	211.899	0	218	0
15.2514	213.42500000000001	0	219	0
14.148899999999999	214.625	0	220	0
13.4787	215.04499999999999	0	221	0
12.722300000000001	215.31399999999999	0	222	0
10.7896	215.66499999999999	0	223	0
8.7224199999999996	215.88800000000001	0	224	0
4.6682199999999998	216.05099999999999	0	225	0
0.26458700000000002	215.941	0	226	0
8.4181500000000007	177.06399999999999	0	227	0
8.4181500000000007	200.11500000000001	0	227	0
11.5749	212.05099999999999	0	228	0
0.26458700000000002	212.05099999999999	0	229	0
17.641100000000002	165.61099999999999	0	230	0
11.875500000000001	165.61099999999999	0	230	0
8.2868300000000001	154.15899999999999	0	231	0
0.26458700000000002	177.06399999999999	0	232	0
11.875500000000001	177.06399999999999	0	232	0
11.875500000000001	154.15899999999999	0	233	0
0.26458700000000002	154.15899999999999	0	234	0
38.507399999999997	285.291	0	235	0
39.483899999999998	295.33499999999998	0	235	0
39.483899999999998	305.35000000000002	0	236	0
33.834499999999998	334.28500000000003	0	237	0
28.630500000000001	345.20400000000001	0	238	0
27.866499999999998	363.53800000000001	0	239	0
10.074999999999999	373.553	0	240	0
10.074999999999999	363.25299999999999	0	240	0
117.85899999999999	268.61599999999999	0	241	0
94.886600000000001	276.07999999999998	0	241	0
48.233400000000003	284.15699999999998	0	242	0
40.799700000000001	285.262	0	243	0
100.854	263.65899999999999	0	244	0
111.077	260.286	0	244	0
95.658699999999996	258.92000000000002	0	245	0
94.578800000000001	238.035	0	245	0
86.683999999999997	238.035	0	246	0
85.357200000000006	263.64800000000002	0	246	0
81.184799999999996	268.33100000000002	0	247	0
69.848600000000005	269.66399999999999	0	247	0
64.664100000000005	264.93599999999998	0	248	0
63.944299999999998	251.05799999999999	0	248	0
56.0383	251.05799999999999	0	249	0
55.183599999999998	267.63600000000002	0	249	0
50.505099999999999	272.37599999999998	0	250	0
33.174700000000001	273.28800000000001	0	250	0
93.7196	236.10400000000001	0	251	0
92.657799999999995	234.892	0	252	0
91.476399999999998	234.316	0	253	0
90.258499999999998	234.29300000000001	0	254	0
89.087299999999999	234.73699999999999	0	255	0
88.045699999999997	235.565	0	256	0
87.216899999999995	236.69200000000001	0	257	0
99.263000000000005	263.58100000000002	0	259	0
98.032399999999996	263.10300000000001	0	260	0
97.116500000000002	262.35199999999998	0	261	0
96.469700000000003	261.45299999999997	0	262	0
96.046099999999996	260.53399999999999	0	263	0
95.800200000000004	259.721	0	264	0
85.053899999999999	265.06799999999998	0	266	0
84.523099999999999	266.17099999999999	0	267	0
83.847300000000004	266.995	0	268	0
83.109099999999998	267.58100000000002	0	269	0
81.775999999999996	268.19600000000003	0	270	0
37.504600000000003	285.31900000000002	0	272	0
31.1081	285.31900000000002	0	273	0
118.791	268.14299999999997	0	274	0
121.01900000000001	266.74599999999998	0	275	0
122.352	265.70999999999998	0	276	0
123.688	264.45499999999998	0	277	0
124.92100000000001	262.98500000000001	0	278	0
125.944	261.30200000000002	0	279	0
126.69499999999999	259.56700000000001	0	280	0
127.20999999999999	257.95800000000003	0	281	0
127.699	255.24799999999999	0	282	0
127.747	253.43100000000001	0	283	0
127.688	252.767	0	284	0
112.90600000000001	259.34100000000001	0	285	0
114.161	258.46100000000001	0	286	0
114.952	257.59899999999999	0	287	0
115.39100000000001	256.70299999999997	0	288	0
115.58799999999999	255.72300000000001	0	289	0
115.65600000000001	254.608	0	290	0
115.845	251.77000000000001	0	291	0
127.459	251.90700000000001	0	292	0
126.625	250.01499999999999	0	293	0
125.913	249.005	0	294	0
124.967	248.124	0	295	0
123.761	247.5	0	296	0
122.267	247.26400000000001	0	297	0
120.73	247.45699999999999	0	298	0
119.411	247.96799999999999	0	299	0
118.30500000000001	248.69	0	300	0
117.40900000000001	249.517	0	301	0
116.23099999999999	251.066	0	302	0
63.879300000000001	250.44300000000001	0	304	0
63.440899999999999	249.102	0	305	0
62.967799999999997	248.39500000000001	0	306	0
62.264600000000002	247.78999999999999	0	307	0
61.285800000000002	247.38200000000001	0	308	0
59.985700000000001	247.26400000000001	0	309	0
58.557699999999997	247.477	0	310	0
57.5199	247.93100000000001	0	311	0
56.810600000000001	248.542	0	312	0
56.368400000000001	249.227	0	313	0
56.038800000000002	250.49000000000001	0	314	0
69.365399999999994	269.66500000000002	0	316	0
68.198099999999997	269.51900000000001	0	317	0
66.770200000000003	269.00299999999999	0	318	0
66.090800000000002	268.53699999999998	0	319	0
65.504999999999995	267.89299999999997	0	320	0
64.990200000000002	266.887	0	321	0
64.743799999999993	265.93000000000001	0	322	0
54.808500000000002	268.976	0	324	0
54.310000000000002	270.10199999999998	0	325	0
53.592199999999998	271.06200000000001	0	326	0
52.705800000000004	271.637	0	327	0
51.689599999999999	272.048	0	328	0
8.2868300000000001	244.72300000000001	0	346	0
0.26458700000000002	348.40699999999998	0	347	0
12.2905	348.40699999999998	0	347	0
23.825600000000001	373.00999999999999	0	348	0
25.524100000000001	371.09500000000003	0	348	0
26.523199999999999	369.55700000000002	0	349	0
27.049299999999999	368.31099999999998	0	350	0
27.328900000000001	367.274	0	351	0
27.7136	364.92599999999999	0	352	0
10.297599999999999	374.46300000000002	0	354	0
10.727399999999999	375.298	0	355	0
11.504099999999999	376.11700000000002	0	356	0
12.0413	376.38499999999999	0	357	0
12.8005	376.54300000000001	0	358	0
15.0121	376.55000000000001	0	359	0
16.6907	376.36900000000003	0	360	0
18.879300000000001	375.86700000000002	0	361	0
21.337599999999998	374.822	0	362	0
22.5929	374.02499999999998	0	363	0
10.193199999999999	362.34399999999999	0	365	0
10.622299999999999	361.49599999999998	0	366	0
11.548299999999999	360.64400000000001	0	367	0
14.5847	358.35700000000003	0	368	0
16.3841	356.86099999999999	0	369	0
16.881900000000002	355.90499999999997	0	370	0
17.1845	354.81799999999998	0	371	0
17.238800000000001	353.42000000000002	0	372	0
17.042200000000001	352.12299999999999	0	373	0
16.7151	351.17700000000002	0	374	0
16.229800000000001	350.411	0	375	0
15.558400000000001	349.65499999999997	0	376	0
14.542899999999999	348.93400000000003	0	377	0
13.4756	348.56299999999999	0	378	0
0.26458700000000002	344.44299999999998	0	380	0
21.113900000000001	344.44299999999998	0	380	0
22.755500000000001	343.99599999999998	0	381	0
24.291599999999999	343.25599999999997	0	382	0
25.8461	342.00799999999998	0	383	0
27.550799999999999	339.98500000000001	0	384	0
29.4175	337.197	0	385	0
30.247699999999998	335.60500000000002	0	386	0
30.921900000000001	333.93099999999998	0	387	0
31.374500000000001	332.20999999999998	0	388	0
31.539899999999999	330.47800000000001	0	389	0
31.724699999999999	325.37900000000002	0	390	0
32.210599999999999	318.38200000000001	0	391	0
32.895000000000003	311.59100000000001	0	392	0
33.279499999999999	308.92899999999997	0	393	0
33.675199999999997	307.10700000000003	0	394	0
34.246899999999997	304.596	0	395	0
34.469900000000003	302.29000000000002	0	396	0
34.442300000000003	298.09899999999999	0	397	0
34.557499999999997	293.63299999999998	0	398	0
34.607999999999997	291.17099999999999	0	399	0
34.5321	288.66199999999998	0	400	0
34.306100000000001	285.31900000000002	0	401	0
30.4712	286.185	0	402	0
29.932700000000001	287.29899999999998	0	403	0
29.119299999999999	290.10199999999998	0	404	0
28.604800000000001	293.39400000000001	0	405	0
28.325700000000001	296.839	0	406	0
28.220800000000001	302.84699999999998	0	407	0
28.298400000000001	305.44600000000003	0	408	0
28.298400000000001	331.62799999999999	0	409	0
27.904199999999999	333.077	0	410	0
26.683299999999999	336.31599999999997	0	411	0
25.744900000000001	338.08699999999999	0	412	0
24.578299999999999	339.68099999999998	0	413	0
23.176300000000001	340.89100000000002	0	414	0
22.384699999999999	341.286	0	415	0
21.531600000000001	341.50799999999998	0	416	0
16.219200000000001	341.834	0	417	0
9.1297599999999992	341.89499999999998	0	418	0
0.26461000000000001	341.77699999999999	0	419	0
30.705400000000001	273.70499999999998	0	420	0
28.174299999999999	274.34100000000001	0	421	0
25.2728	275.36500000000001	0	422	0
22.371400000000001	276.851	0	423	0
21.0364	277.79199999999997	0	424	0
19.840299999999999	278.87700000000001	0	425	0
18.8294	280.11700000000002	0	426	0
18.0501	281.51900000000001	0	427	0
17.548500000000001	283.09500000000003	0	428	0
17.370999999999999	284.85300000000001	0	429	0
17.370999999999999	322.98599999999999	0	430	0
17.2455	324.31799999999998	0	431	0
16.649100000000001	327.32299999999998	0	432	0
16.071000000000002	328.988	0	433	0
15.2514	330.51400000000001	0	434	0
14.148899999999999	331.714	0	435	0
13.4787	332.13400000000001	0	436	0
12.722300000000001	332.40300000000002	0	437	0
10.7896	332.75400000000002	0	438	0
8.7224199999999996	332.97699999999998	0	439	0
4.6682199999999998	333.13999999999999	0	440	0
0.26458700000000002	333.02999999999997	0	441	0
8.28688	294.15300000000002	0	442	0
8.28688	317.20400000000001	0	442	0
11.4437	329.13999999999999	0	443	0
0.26458700000000002	329.13999999999999	0	444	0
17.641100000000002	282.69999999999999	0	445	0
11.875500000000001	282.69999999999999	0	445	0
8.2868300000000001	271.24799999999999	0	446	0
0.26458700000000002	294.15300000000002	0	447	0
11.875500000000001	294.15300000000002	0	447	0
12.0068	271.24900000000002	0	448	0
11.941155732623123	282.69999999999999	0	0	0
0.26458700000000002	271.24799999999999	0	449	0
38.507399999999997	402.38	0	450	0
39.483899999999998	412.42399999999998	0	450	0
39.483899999999998	422.43900000000002	0	451	0
33.834499999999998	451.37400000000002	0	452	0
28.630500000000001	462.29300000000001	0	453	0
27.866499999999998	480.62700000000001	0	454	0
10.074999999999999	490.642	0	455	0
10.074999999999999	480.34199999999998	0	455	0
117.85899999999999	385.70499999999998	0	456	0
94.886600000000001	393.16899999999998	0	456	0
48.233400000000003	401.24599999999998	0	457	0
40.799700000000001	402.351	0	458	0
100.854	380.74900000000002	0	459	0
111.077	377.37599999999998	0	459	0
95.658699999999996	376.00900000000001	0	460	0
94.578800000000001	355.12400000000002	0	460	0
86.683999999999997	355.12400000000002	0	461	0
85.357200000000006	380.73700000000002	0	461	0
81.184799999999996	385.42000000000002	0	462	0
69.848600000000005	386.75299999999999	0	462	0
64.664100000000005	382.02499999999998	0	463	0
63.944299999999998	368.14699999999999	0	463	0
56.0383	368.14699999999999	0	464	0
55.183599999999998	384.72500000000002	0	464	0
50.505099999999999	389.46499999999997	0	465	0
33.174700000000001	390.37599999999998	0	465	0
93.7196	353.19299999999998	0	466	0
92.657799999999995	351.98099999999999	0	467	0
91.476399999999998	351.40499999999997	0	468	0
90.258499999999998	351.38200000000001	0	469	0
89.087299999999999	351.82600000000002	0	470	0
88.045699999999997	352.654	0	471	0
87.216899999999995	353.78100000000001	0	472	0
99.263099999999994	380.67099999999999	0	474	0
98.032700000000006	380.19299999999998	0	475	0
97.116900000000001	379.44099999999997	0	476	0
96.470100000000002	378.54300000000001	0	477	0
96.046599999999998	377.62400000000002	0	478	0
95.800600000000003	376.81099999999998	0	479	0
85.053899999999999	382.15699999999998	0	481	0
84.523099999999999	383.25999999999999	0	482	0
83.847200000000001	384.084	0	483	0
83.108999999999995	384.67000000000002	0	484	0
81.775999999999996	385.28500000000003	0	485	0
37.504600000000003	402.40800000000002	0	487	0
31.1081	402.40800000000002	0	488	0
118.791	385.23200000000003	0	489	0
121.01900000000001	383.83499999999998	0	490	0
122.352	382.79899999999998	0	491	0
123.688	381.54399999999998	0	492	0
124.92100000000001	380.07400000000001	0	493	0
125.944	378.39100000000002	0	494	0
126.69499999999999	376.65600000000001	0	495	0
127.20999999999999	375.04700000000003	0	496	0
127.699	372.33699999999999	0	497	0
127.747	370.51999999999998	0	498	0
127.688	369.85599999999999	0	499	0
112.90600000000001	376.43000000000001	0	500	0
114.161	375.55000000000001	0	501	0
114.952	374.68799999999999	0	502	0
115.39100000000001	373.79199999999997	0	503	0
115.58799999999999	372.81200000000001	0	504	0
115.65600000000001	371.697	0	505	0
115.845	368.85899999999998	0	506	0
127.459	368.99599999999998	0	507	0
126.625	367.10399999999998	0	508	0
125.913	366.09399999999999	0	509	0
124.967	365.21300000000002	0	510	0
123.761	364.589	0	511	0
122.267	364.35300000000001	0	512	0
120.73	364.54599999999999	0	513	0
119.411	365.05700000000002	0	514	0
118.30500000000001	365.779	0	515	0
117.40900000000001	366.60599999999999	0	516	0
116.23099999999999	368.15499999999997	0	517	0
63.879300000000001	367.53199999999998	0	519	0
63.440899999999999	366.19099999999997	0	520	0
62.967799999999997	365.48399999999998	0	521	0
62.264600000000002	364.87900000000002	0	522	0
61.285800000000002	364.471	0	523	0
59.985700000000001	364.35300000000001	0	524	0
58.557699999999997	364.56599999999997	0	525	0
57.5199	365.01999999999998	0	526	0
56.810600000000001	365.63	0	527	0
56.368400000000001	366.31599999999997	0	528	0
56.038800000000002	367.57900000000001	0	529	0
69.365399999999994	386.75400000000002	0	531	0
68.198099999999997	386.608	0	532	0
66.770200000000003	386.09199999999998	0	533	0
66.090800000000002	385.62599999999998	0	534	0
65.504999999999995	384.98200000000003	0	535	0
64.990200000000002	383.976	0	536	0
64.743799999999993	383.01900000000001	0	537	0
54.808500000000002	386.065	0	539	0
54.310000000000002	387.19099999999997	0	540	0
53.592199999999998	388.15100000000001	0	541	0
52.705800000000004	388.726	0	542	0
51.689599999999999	389.137	0	543	0
8.2868300000000001	361.81200000000001	0	561	0
0.26458700000000002	465.49599999999998	0	562	0
12.2905	465.49599999999998	0	562	0
23.825600000000001	490.09899999999999	0	563	0
25.524100000000001	488.18400000000003	0	563	0
26.523199999999999	486.64600000000002	0	564	0
27.049299999999999	485.39999999999998	0	565	0
27.328900000000001	484.363	0	566	0
27.7136	482.01499999999999	0	567	0
10.297599999999999	491.55200000000002	0	569	0
10.727399999999999	492.387	0	570	0
11.504099999999999	493.20600000000002	0	571	0
12.0413	493.47399999999999	0	572	0
12.8005	493.63200000000001	0	573	0
15.0121	493.63900000000001	0	574	0
16.6907	493.45800000000003	0	575	0
18.879300000000001	492.95600000000002	0	576	0
21.337599999999998	491.911	0	577	0
22.5929	491.11399999999998	0	578	0
10.193199999999999	479.43299999999999	0	580	0
10.622299999999999	478.58499999999998	0	581	0
11.548299999999999	477.733	0	582	0
14.5847	475.44600000000003	0	583	0
16.3841	473.94999999999999	0	584	0
16.881900000000002	472.99400000000003	0	585	0
17.1845	471.90699999999998	0	586	0
17.238800000000001	470.50900000000001	0	587	0
17.042200000000001	469.21199999999999	0	588	0
16.7151	468.26600000000002	0	589	0
16.229800000000001	467.5	0	590	0
15.558400000000001	466.74400000000003	0	591	0
14.542899999999999	466.02300000000002	0	592	0
13.4756	465.65199999999999	0	593	0
0.26458700000000002	461.53199999999998	0	595	0
21.113900000000001	461.53199999999998	0	595	0
22.755500000000001	461.08499999999998	0	596	0
24.291599999999999	460.34500000000003	0	597	0
25.8461	459.09699999999998	0	598	0
27.550799999999999	457.07400000000001	0	599	0
29.4175	454.286	0	600	0
30.247699999999998	452.69400000000002	0	601	0
30.921900000000001	451.01999999999998	0	602	0
31.374500000000001	449.29899999999998	0	603	0
31.539899999999999	447.56700000000001	0	604	0
31.724699999999999	442.46800000000002	0	605	0
32.210599999999999	435.471	0	606	0
32.895000000000003	428.68000000000001	0	607	0
33.279499999999999	426.01799999999997	0	608	0
33.675199999999997	424.19600000000003	0	609	0
34.246899999999997	421.685	0	610	0
34.469900000000003	419.37900000000002	0	611	0
34.442300000000003	415.18799999999999	0	612	0
34.557499999999997	410.72199999999998	0	613	0
34.607999999999997	408.25999999999999	0	614	0
34.5321	405.75099999999998	0	615	0
34.306100000000001	402.40800000000002	0	616	0
30.4712	403.274	0	617	0
29.932700000000001	404.38799999999998	0	618	0
29.119299999999999	407.19099999999997	0	619	0
28.604800000000001	410.483	0	620	0
28.325700000000001	413.928	0	621	0
28.220800000000001	419.93599999999998	0	622	0
28.298400000000001	422.53500000000003	0	623	0
28.298400000000001	448.71699999999998	0	624	0
27.904199999999999	450.166	0	625	0
26.683299999999999	453.40499999999997	0	626	0
25.744900000000001	455.17599999999999	0	627	0
24.578299999999999	456.76999999999998	0	628	0
23.176300000000001	457.98000000000002	0	629	0
22.384699999999999	458.375	0	630	0
21.531600000000001	458.59699999999998	0	631	0
16.219200000000001	458.923	0	632	0
9.1297599999999992	458.98399999999998	0	633	0
0.26461000000000001	458.86599999999999	0	634	0
30.705400000000001	390.79399999999998	0	635	0
28.174299999999999	391.43000000000001	0	636	0
25.2728	392.45400000000001	0	637	0
22.371400000000001	393.94	0	638	0
21.0364	394.88099999999997	0	639	0
19.840299999999999	395.96600000000001	0	640	0
18.8294	397.20600000000002	0	641	0
18.0501	398.608	0	642	0
17.548500000000001	400.18400000000003	0	643	0
17.370999999999999	401.94200000000001	0	644	0
17.370999999999999	440.07499999999999	0	645	0
17.2455	441.40699999999998	0	646	0
16.649100000000001	444.41199999999998	0	647	0
16.071000000000002	446.077	0	648	0
15.2514	447.60300000000001	0	649	0
14.148899999999999	448.803	0	650	0
13.4787	449.22300000000001	0	651	0
12.722300000000001	449.49200000000002	0	652	0
10.7896	449.84300000000002	0	653	0
8.72241	450.06599999999997	0	654	0
4.6681900000000001	450.22899999999998	0	655	0
0.26454	450.12	0	656	0
8.28688	411.24200000000002	0	657	0
8.28688	434.29300000000001	0	657	0
11.4437	446.22899999999998	0	658	0
0.26458700000000002	446.22899999999998	0	659	0
17.641100000000002	399.79000000000002	0	660	0
11.875500000000001	399.79000000000002	0	660	0
8.2868300000000001	388.33699999999999	0	661	0
0.26458700000000002	411.24200000000002	0	662	0
11.875500000000001	411.24200000000002	0	662	0
12.0068	388.33800000000002	0	663	0
11.94115	399.79000000000002	0	0	0
0.26458700000000002	388.33699999999999	0	664	0
[NumSegments] = 659
0	531	-1	0	0	16	0
2	3	-1	0	0	0	0
0	2	-1	0	0	0	0
1	3	-1	0	0	0	0
4	5	-1	0	0	20	0
5	6	-1	0	0	21	0
6	7	-1	0	0	22	0
7	8	-1	0	0	23	0
8	9	-1	0	0	24	0
10	11	-1	0	0	25	0
12	13	-1	0	0	26	0
13	14	-1	0	0	27	0
14	15	-1	0	0	28	0
16	17	-1	0	0	29	0
18	19	-1	0	0	30	0
20	21	-1	0	0	31	0
22	23	-1	0	0	32	0
24	25	-1	0	0	33	0
26	27	-1	0	0	34	0
28	29	-1	0	0	35	0
19	30	-1	0	0	36	0
30	31	-1	0	0	37	0
31	32	-1	0	0	38	0
32	33	-1	0	0	39	0
33	34	-1	0	0	40	0
34	35	-1	0	0	41	0
35	36	-1	0	0	42	0
36	20	-1	0	0	43	0
16	37	-1	0	0	44	0
37	38	-1	0	0	45	0
38	39	-1	0	0	46	0
39	40	-1	0	0	47	0
40	41	-1	0	0	48	0
41	42	-1	0	0	49	0
42	18	-1	0	0	50	0
21	43	-1	0	0	51	0
43	44	-1	0	0	52	0
44	45	-1	0	0	53	0
45	46	-1	0	0	54	0
46	47	-1	0	0	55	0
47	22	-1	0	0	56	0
15	4	-1	0	0	57	0
4	48	-1	0	0	57	0
48	174	-1	0	0	58	0
12	50	-1	0	0	59	0
50	51	-1	0	0	60	0
51	52	-1	0	0	61	0
52	53	-1	0	0	62	0
53	54	-1	0	0	63	0
54	55	-1	0	0	64	0
55	56	-1	0	0	65	0
56	57	-1	0	0	66	0
57	58	-1	0	0	67	0
58	59	-1	0	0	68	0
59	60	-1	0	0	69	0
17	61	-1	0	0	70	0
61	62	-1	0	0	71	0
62	63	-1	0	0	72	0
63	64	-1	0	0	73	0
64	65	-1	0	0	74	0
65	66	-1	0	0	75	0
66	67	-1	0	0	76	0
60	68	-1	0	0	77	0
68	69	-1	0	0	78	0
69	70	-1	0	0	79	0
70	71	-1	0	0	80	0
71	72	-1	0	0	81	0
72	73	-1	0	0	82	0
73	74	-1	0	0	83	0
74	75	-1	0	0	84	0
75	76	-1	0	0	85	0
76	77	-1	0	0	86	0
77	78	-1	0	0	87	0
78	67	-1	0	0	88	0
25	79	-1	0	0	89	0
79	80	-1	0	0	90	0
80	81	-1	0	0	91	0
81	82	-1	0	0	92	0
82	83	-1	0	0	93	0
83	84	-1	0	0	94	0
84	85	-1	0	0	95	0
85	86	-1	0	0	96	0
86	87	-1	0	0	97	0
87	88	-1	0	0	98	0
88	89	-1	0	0	99	0
89	26	-1	0	0	100	0
23	90	-1	0	0	101	0
90	91	-1	0	0	102	0
91	92	-1	0	0	103	0
92	93	-1	0	0	104	0
93	94	-1	0	0	105	0
94	95	-1	0	0	106	0
95	96	-1	0	0	107	0
96	24	-1	0	0	108	0
27	97	-1	0	0	109	0
97	98	-1	0	0	110	0
98	99	-1	0	0	111	0
99	100	-1	0	0	112	0
100	101	-1	0	0	113	0
101	28	-1	0	0	114	0
102	1	-1	0	0	16	0
102	103	-1	0	0	0	0
103	104	-1	0	0	0	0
104	105	-1	0	0	0	0
105	106	-1	0	0	0	0
106	107	-1	0	0	0	0
107	108	-1	0	0	0	0
108	109	-1	0	0	0	0
109	110	-1	0	0	0	0
110	111	-1	0	0	0	0
111	112	-1	0	0	0	0
112	113	-1	0	0	0	0
113	114	-1	0	0	0	0
114	115	-1	0	0	0	0
115	116	-1	0	0	0	0
116	117	-1	0	0	0	0
117	118	-1	0	0	0	0
118	119	-1	0	0	0	0
120	152	-1	0	0	16	0
120	121	-1	0	0	132	0
122	123	-1	0	0	133	0
123	124	-1	0	0	134	0
124	125	-1	0	0	135	0
125	126	-1	0	0	136	0
126	127	-1	0	0	137	0
127	9	-1	0	0	138	0
10	128	-1	0	0	139	0
128	129	-1	0	0	140	0
129	130	-1	0	0	141	0
130	131	-1	0	0	142	0
131	132	-1	0	0	143	0
132	133	-1	0	0	144	0
133	134	-1	0	0	145	0
134	135	-1	0	0	146	0
135	136	-1	0	0	147	0
136	137	-1	0	0	148	0
137	122	-1	0	0	149	0
11	138	-1	0	0	150	0
138	139	-1	0	0	151	0
139	140	-1	0	0	152	0
140	141	-1	0	0	153	0
141	142	-1	0	0	154	0
142	143	-1	0	0	155	0
143	144	-1	0	0	156	0
144	145	-1	0	0	157	0
145	146	-1	0	0	158	0
146	147	-1	0	0	159	0
147	148	-1	0	0	160	0
148	149	-1	0	0	161	0
149	150	-1	0	0	162	0
150	151	-1	0	0	163	0
151	121	-1	0	0	164	0
152	192	-1	0	0	16	0
152	153	-1	0	0	165	0
153	154	-1	0	0	166	0
154	155	-1	0	0	167	0