[Format]      =  1
[Precision]   =  1e-008
[Frequency]   =  0
[MinAngle]    =  30
[DoSmartMesh] =  1
[Depth]       =  1
[LengthUnits] =  millimeters
[ProblemType] =  axisymmetric
[Coordinates] =  cartesian
[Comment]     =  "Add comments here."
[PointProps]   = 0
[BdryProps]   = 0
[BlockProps]  = 0
[ConductorProps]  = 0
[NumPoints] = 20
0.50653999999999999	38.693399999999997	0	2	0
22.728100000000001	38.603499999999997	0	2	0
43.363700000000001	38.349299999999999	0	3	0
62.4343	37.9544	0	4	0
79.961100000000002	37.442100000000003	0	5	0
110.467	36.159599999999998	0	6	0
135.05000000000001	34.689300000000003	0	7	0
153.87700000000001	33.219000000000001	0	8	0
167.11600000000001	31.936399999999999	0	9	0
177.50700000000001	30.685099999999998	0	10	0
177.50700000000001	0.69343999999999995	0	11	0
0.50653999999999999	0.69343999999999995	0	13	0
0.50653999999999999	238.69300000000001	0	14	0
2.0065400000000002	244.69300000000001	0	14	0
0.50653999999999999	244.69300000000001	0	15	0
0.50653999999999999	454.69299999999998	0	15	0
2.0065400000000002	454.69299999999998	0	16	0
277.50700000000001	0.69343999999999995	0	18	0
277.50700000000001	454.69299999999998	0	20	0
2.3999999999999999	221.69999999999999	0	0	0
[NumSegments] = 21
0	1	-1	0	0	0	0
1	2	-1	0	0	0	0
2	3	-1	0	0	0	0
3	4	-1	0	0	0	0
4	5	-1	0	0	0	0
5	6	-1	0	0	0	0
6	7	-1	0	0	0	0
7	8	-1	0	0	0	0
8	9	-1	0	0	0	0
10	9	-1	0	0	0	0
11	10	-1	0	0	0	0
12	13	-1	0	0	0	0
14	15	-1	0	0	0	0
13	16	-1	0	0	0	0
15	16	-1	0	0	0	0
10	17	-1	0	0	18	0
0	11	-1	0	0	0	0
17	18	-1	0	0	20	0
16	18	-1	0	0	21	0
0	12	-1	0	0	22	0
12	14	-1	0	0	0	0
[NumArcSegments] = 0
[NumHoles] = 0
[NumBlockLabels] = 0
